*Heading
** Job name: airfoil Model name: Model-1
** Generated by: Abaqus/CAE Student Edition 2019
*Preprint, echo=NO, model=NO, history=NO, contact=NO
**
** PARTS
**
*Part, name=airfoil3d
*Node
      1,  0.431500614, -0.0378873497,           0.
      2,  0.480981559, -0.0208557472,           0.
      3,  0.199999779, -0.0599919371,           0.
      4,          0.5,           0.,           0.
      5, -0.466935366, -0.0182201006,           0.
      6, -0.389544308, -0.0323449895,           0.
      7, -0.242611781, -0.0464770496,           0.
      8, -0.0951959044, -0.0543965809,           0.
      9,         -0.5,           0.,           0.
     10, -0.0951959044, 0.0543965809,           0.
     11, -0.242611781, 0.0464770496,           0.
     12, -0.389544308, 0.0323449895,           0.
     13, -0.466935366, 0.0182201006,           0.
     14,  0.199999779, 0.0599919371,           0.
     15,  0.480981559, 0.0208557472,           0.
     16,  0.431500614, 0.0378873497,           0.
     17,  0.327919424, -0.0540025719,           0.
     18, 0.0523741469, -0.0586426556,           0.
     19, 0.0523741469, 0.0586426556,           0.
     20,  0.327919424, 0.0540025719,           0.
** ... 966 like lines cut
*Element, type=C3D8
  1,   1,   2,  24,  25,  30,  31,  53,  54
  2,  15,  24,   2,   4,  44,  53,  31,  33
  3,  24,  15,  16,  25,  53,  44,  45,  54
  4,   3,  27,  28,  18,  32,  56,  57,  47
  5,  23,  29,  10,  11,  52,  58,  39,  40
  6,  29,  28,  19,  10,  58,  57,  48,  39
  7,   8,  29,  23,   7,  37,  58,  52,  36
  8,   5,   6,  22,  21,  34,  35,  51,  50
  9,  22,  23,  11,  12,  51,  52,  40,  41
 10,  21,  22,  12,  13,  50,  51,  41,  42
 11,  21,  13,   9,   5,  50,  42,  38,  34
 12,  27,   3,  17,  26,  56,  32,  46,  55
 13,  27,  26,  20,  14,  56,  55,  49,  43
 14,  18,  28,  29,   8,  47,  57,  58,  37
 15,  28,  27,  14,  19,  57,  56,  43,  48
 16,  26,  25,  16,  20,  55,  54,  45,  49
 17,   6,   7,  23,  22,  35,  36,  52,  51
 18,   1,  25,  26,  17,  30,  54,  55,  46
 19,  30,  31,  53,  54,  59,  60,  82,  83
 20,  44,  53,  31,  33,  73,  82,  60,  62
** ... 574 like lines cut
*Nset, nset=Set-1, generate
   1,  986,    1
*Elset, elset=Set-1, generate
   1,  594,    1
** Section: Section-1
*Solid Section, elset=Set-1, material=composite
,
*End Part
**  
**
** ASSEMBLY
**
*Assembly, name=Assembly
**  
*Instance, name=airfoil3d-1, part=airfoil3d
          0.,          -5.,           0.
          0.,          -5.,           0., 4.32978043075079e-17, -4.29289320984164, 0.707106790158355,         180.
*End Instance
**  
*Nset, nset=Set-1, instance=airfoil3d-1, generate
  1,  29,   1
*Elset, elset=Set-1, instance=airfoil3d-1, generate
  1,  18,   1
*Nset, nset=interface, instance=airfoil3d-1
   1,   2,   3,   4,   5,   6,   7,   8,   9,  10,  11,  12,  13,  14,  15,  16
  17,  18,  19,  20,  30,  31,  32,  33,  34,  35,  36,  37,  38,  39,  40,  41
  42,  43,  44,  45,  46,  47,  48,  49,  59,  60,  61,  62,  63,  64,  65,  66
  67,  68,  69,  70,  71,  72,  73,  74,  75,  76,  77,  78,  88,  89,  90,  91
  92,  93,  94,  95,  96,  97,  98,  99, 100, 101, 102, 103, 104, 105, 106, 107
 117, 118, 119, 120, 121, 122, 123, 124, 125, 126, 127, 128, 129, 130, 131, 132
 133, 134, 135, 136, 146, 147, 148, 149, 150, 151, 152, 153, 154, 155, 156, 157
 158, 159, 160, 161, 162, 163, 164, 165, 175, 176, 177, 178, 179, 180, 181, 182
 183, 184, 185, 186, 187, 188, 189, 190, 191, 192, 193, 194, 204, 205, 206, 207
 208, 209, 210, 211, 212, 213, 214, 215, 216, 217, 218, 219, 220, 221, 222, 223
 233, 234, 235, 236, 237, 238, 239, 240, 241, 242, 243, 244, 245, 246, 247, 248
 249, 250, 251, 252, 262, 263, 264, 265, 266, 267, 268, 269, 270, 271, 272, 273
 274, 275, 276, 277, 278, 279, 280, 281, 291, 292, 293, 294, 295, 296, 297, 298
 299, 300, 301, 302, 303, 304, 305, 306, 307, 308, 309, 310, 320, 321, 322, 323
 324, 325, 326, 327, 328, 329, 330, 331, 332, 333, 334, 335, 336, 337, 338, 339
 349, 350, 351, 352, 353, 354, 355, 356, 357, 358, 359, 360, 361, 362, 363, 364
 365, 366, 367, 368, 378, 379, 380, 381, 382, 383, 384, 385, 386, 387, 388, 389
 390, 391, 392, 393, 394, 395, 396, 397, 407, 408, 409, 410, 411, 412, 413, 414
 415, 416, 417, 418, 419, 420, 421, 422, 423, 424, 425, 426, 436, 437, 438, 439
 440, 441, 442, 443, 444, 445, 446, 447, 448, 449, 450, 451, 452, 453, 454, 455
** ... 24 like lines cut
*Elset, elset=interface, instance=airfoil3d-1, generate
   1,  594,    1
*End Assembly
** 
** MATERIALS
** 
*Material, name=composite
*Density
1000.,
*Elastic
 1e+09, 0.4
** 
** BOUNDARY CONDITIONS
** 
** Name: fixedEnd Type: Symmetry/Antisymmetry/Encastre
*Boundary
Set-1, PINNED
** ----------------------------------------------------------------
** 
** STEP: loading
** 
*Step, name=loading, nlgeom=NO
*Static
1., 1., 1e-05, 1.
** 
** OUTPUT REQUESTS
** 
*Restart, write, frequency=0
** 
** FIELD OUTPUT: F-Output-1
** 
*Output, field, variable=PRESELECT
** 
** HISTORY OUTPUT: H-Output-1
** 
*Output, history, variable=PRESELECT
*End Step
